Circuit: * C:\Users\Haz\Documents\Blog\555Wannabe\555Wanabe.asc

Direct Newton iteration failed to find .op point.  (Use ".option noopiter" to skip.)
Starting Gmin stepping
Gmin = 10
Gmin = 1.07374
Gmin = 0.115292
Gmin = 0.0123794
Gmin = 0.00132923
Gmin = 0.000142725
Gmin = 1.5325e-005
Gmin = 1.6455e-006
Gmin = 1.76685e-007
Gmin = 1.89714e-008
Gmin = 2.03704e-009
Gmin = 2.18725e-010
Gmin = 2.34854e-011
Gmin = 2.52173e-012
Gmin = 2.70769e-013
Gmin = 0
Gmin stepping succeeded in finding the operating point.


Date: Tue Aug 26 21:33:16 2014
Total elapsed time: 1.200 seconds.

tnom = 27
temp = 27
method = modified trap
totiter = 132049
traniter = 131621
tranpoints = 33770
accept = 23998
rejected = 9772
matrix size = 24
fillins = 18
solver = Normal
Matrix Compiler1: 2.80 KB object code size  0.9/0.5/[0.3]
Matrix Compiler2: off  [0.3]/0.5/0.7


